McPAT (version 1.3 of Feb, 2015) is computing the target processor...
 

McPAT (version 1.3 of Feb, 2015) results  (current print level is 5)
*****************************************************************************************
  Technology 22 nm
  Using Long Channel Devices When Appropriate
  Interconnect metal projection= conservative interconnect technology projection
  Core clock Rate(MHz) 2400

*****************************************************************************************
Processor: 
  Area = 0.808266 mm^2
  Peak Power = 0.383009 W
  Total Leakage = 0.0313371 W
  Peak Dynamic = 0.351672 W
  Subthreshold Leakage = 0.0306302 W
  Gate Leakage = 0.000706956 W
  Runtime Dynamic = 0.0079609 W

  Total Cores: 1 cores 
  Device Type= ITRS low operating power device type
    Area = 0.72219 mm^2
    Peak Dynamic = 0.338126 W
    Subthreshold Leakage = 0.0273627 W
    Gate Leakage = 0.000602918 W
    Runtime Dynamic = 0.00764727 W

  Total First Level Directory: 
  Device Type= ITRS low operating power device type
    Area = 0.0828977 mm^2
    Peak Dynamic = 0.00844044 W
    Subthreshold Leakage = 0.00304137 W
    Gate Leakage = 9.81906e-05 W
    Runtime Dynamic = 0.000302232 W

  Total NoCs (Network/Bus): 
  Device Type= ITRS low operating power device type
    Area = 0.00317789 mm^2
    Peak Dynamic = 0.00510511 W
    Subthreshold Leakage = 0.000226109 W
    Gate Leakage = 5.8471e-06 W
    Runtime Dynamic = 1.13952e-05 W

*****************************************************************************************
Core:
      Area = 0.72219 mm^2
      Peak Dynamic = 0.338126 W
      Subthreshold Leakage = 0.0273627 W
      Gate Leakage = 0.000602918 W
      Runtime Dynamic = 0.00764727 W

      Instruction Fetch Unit:
        Area = 0.146316 mm^2
        Peak Dynamic = 0.163609 W
        Subthreshold Leakage = 0.00619543 W
        Gate Leakage = 9.51638e-05 W
        Runtime Dynamic = 0.00214183 W

          Instruction Cache:
            Area = 0.0741861 mm^2
            Peak Dynamic = 0.032698 W
            Subthreshold Leakage = 0.0039665 W
            Gate Leakage = 6.50117e-05 W
            Runtime Dynamic = 9.30436e-06 W

          Branch Target Buffer:
            Area = 0.0466984 mm^2
            Peak Dynamic = 0.00548634 W
            Subthreshold Leakage = 0.00119387 W
            Gate Leakage = 1.02698e-05 W
            Runtime Dynamic = 8.16409e-06 W

          Branch Predictor:
            Area = 0.0201384 mm^2
            Peak Dynamic = 0.00447367 W
            Subthreshold Leakage = 0.000752071 W
            Gate Leakage = 1.13124e-05 W
            Runtime Dynamic = 2.30284e-06 W

              Global Predictor:
                Area = 0.00972367 mm^2
                Peak Dynamic = 0.00199232 W
                Subthreshold Leakage = 0.000364389 W
                Gate Leakage = 5.37384e-06 W
                Runtime Dynamic = 1.07712e-06 W

              Local Predictor:
              L1_Local Predictor:
                Area = 0.000220504 mm^2
                Peak Dynamic = 0.000142911 W
                Subthreshold Leakage = 7.91995e-06 W
                Gate Leakage = 1.99122e-07 W
                Runtime Dynamic = 8.34576e-08 W

              L2_Local Predictor:
                Area = 0.000210131 mm^2
                Peak Dynamic = 0.000113545 W
                Subthreshold Leakage = 7.52416e-06 W
                Gate Leakage = 1.79377e-07 W
                Runtime Dynamic = 6.51157e-08 W

              Chooser:
                Area = 0.00972367 mm^2
                Peak Dynamic = 0.00199232 W
                Subthreshold Leakage = 0.000364389 W
                Gate Leakage = 5.37384e-06 W
                Runtime Dynamic = 1.07712e-06 W

              RAS:
                Area = 0.000260413 mm^2
                Peak Dynamic = 0.000232563 W
                Subthreshold Leakage = 7.84827e-06 W
                Gate Leakage = 1.86244e-07 W
                Runtime Dynamic = 1.42906e-11 W

          Instruction Buffer:
            Area = 0.00278893 mm^2
            Peak Dynamic = 0.0983458 W
            Subthreshold Leakage = 9.55657e-05 W
            Gate Leakage = 1.6757e-06 W
            Runtime Dynamic = 2.09066e-05 W

          Instruction Decoder:
            Area = 0.00138193 mm^2
            Peak Dynamic = 0.0205188 W
            Subthreshold Leakage = 0.000120824 W
            Gate Leakage = 2.34514e-06 W
            Runtime Dynamic = 1.52668e-05 W

      Load Store Unit:
        Area = 0.0887033 mm^2
        Peak Dynamic = 0.0390853 W
        Subthreshold Leakage = 0.00433381 W
        Gate Leakage = 7.73424e-05 W
        Runtime Dynamic = 0.00168694 W

          Data Cache:
            Area = 0.0766447 mm^2
            Peak Dynamic = 0.0320411 W
            Subthreshold Leakage = 0.00412545 W
            Gate Leakage = 6.91663e-05 W
            Runtime Dynamic = 3.8574e-05 W

          Load/Store Queue:
            Area = 0.00297449 mm^2
            Peak Dynamic = 0.00539872 W
            Subthreshold Leakage = 0.000141757 W
            Gate Leakage = 3.62709e-06 W
            Runtime Dynamic = 2.82877e-06 W

      Memory Management Unit:
        Area = 0.00788056 mm^2
        Peak Dynamic = 0.00706168 W
        Subthreshold Leakage = 0.000352116 W
        Runtime Dynamic = 0.00198864 W

          Itlb:
            Area = 0.00337918 mm^2
            Peak Dynamic = 0.0028398 W
            Subthreshold Leakage = 0.00014276 W
            Gate Leakage = 3.42161e-06 W
            Runtime Dynamic = 2.34771e-06 W

          Dtlb:
            Area = 0.00337918 mm^2
            Peak Dynamic = 0.00224029 W
            Subthreshold Leakage = 0.00014276 W
            Gate Leakage = 3.42161e-06 W
            Runtime Dynamic = 4.6954e-06 W

      Execution Unit:
        Area = 0.446129 mm^2
        Peak Dynamic = 0.128371 W
        Subthreshold Leakage = 0.0152445 W
        Runtime Dynamic = 0.00182987 W

          Register Files:
            Area = 0.0339016 mm^2
            Peak Dynamic = 0.0460493 W
            Subthreshold Leakage = 0.000247485 W
            Gate Leakage = 5.43459e-06 W
            Runtime Dynamic = 8.00499e-06 W

              Integer RF:
                Area = 0.0242443 mm^2
                Peak Dynamic = 0.0447553 W
                Subthreshold Leakage = 0.000165468 W
                Gate Leakage = 3.67316e-06 W
                Runtime Dynamic = 7.21325e-06 W

              Floating Point RF:
                Area = 0.0096573 mm^2
                Peak Dynamic = 0.00129399 W
                Subthreshold Leakage = 8.20172e-05 W
                Gate Leakage = 1.76144e-06 W
                Runtime Dynamic = 7.91759e-07 W

          Instruction Scheduler:
            Area = 0 mm^2
            Peak Dynamic = 0 W
            Subthreshold Leakage = 0 W
            Gate Leakage = 0 W
            Runtime Dynamic = 0 W

          Integer ALUs (Count: 3 ):
            Area = 0.0576816 mm^2
            Peak Dynamic = 0.0154224 W
            Subthreshold Leakage = 0.00430269 W
            Gate Leakage = 0.000108859 W
            Runtime Dynamic = 7.54927e-06 W

          Floating Point Units (FPUs) (Count: 1 ):
            Area = 0.293806 mm^2
            Peak Dynamic = 0 W
            Subthreshold Leakage = 0.00547903 W
            Gate Leakage = 0.000138621 W
            Runtime Dynamic = 7.54927e-06 W

          Complex ALUs (Mul/Div) (Count: 1 ):
            Area = 0.0576816 mm^2
            Peak Dynamic = 0.0110933 W
            Subthreshold Leakage = 0.00430269 W
            Gate Leakage = 0.000108859 W
            Runtime Dynamic = 1.00657e-05 W

          Results Broadcast Bus:
            Area Overhead = 0.00193588 mm^2
            Peak Dynamic = 0.0540443 W
            Subthreshold Leakage = 0.000846021 W
            Gate Leakage = 2.14046e-05 W
            Runtime Dynamic = 3.52825e-05 W

*****************************************************************************************
First Level Directory
      Area = 0.0828977 mm^2
      Peak Dynamic = 0.00844044 W
      Subthreshold Leakage = 0.00304137 W
      Gate Leakage = 9.81906e-05 W
      Runtime Dynamic = 0.000302232 W

*****************************************************************************************
BUSES
      Area = 0.00317789 mm^2
      Peak Dynamic = 0.00510511 W
      Subthreshold Leakage = 0.000226109 W
      Gate Leakage = 5.8471e-06 W
      Runtime Dynamic = 1.13952e-05 W

      Bus: 
        Area = 0.00317789 mm^2
        Peak Dynamic = 0.00510511 W
        Subthreshold Leakage = 0.000226109 W
        Gate Leakage = 5.8471e-06 W
        Runtime Dynamic = 1.13952e-05 W

*****************************************************************************************
