McPAT (version 1.3 of Feb, 2015) is computing the target processor...
 

McPAT (version 1.3 of Feb, 2015) results  (current print level is 5)
*****************************************************************************************
  Technology 22 nm
  Using Long Channel Devices When Appropriate
  Interconnect metal projection= conservative interconnect technology projection
  Core clock Rate(MHz) 2400

*****************************************************************************************
Processor: 
  Area = 4.9975 mm^2
  Peak Power = 0.941834 W
  Total Leakage = 0.144525 W
  Peak Dynamic = 0.797309 W
  Subthreshold Leakage = 0.142176 W
  Gate Leakage = 0.00234941 W
  Runtime Dynamic = 0.0463564 W

  Total Cores: 1 cores 
  Device Type= ITRS low operating power device type
    Area = 0.7714 mm^2
    Peak Dynamic = 0.40652 W
    Subthreshold Leakage = 0.0351069 W
    Gate Leakage = 0.00061054 W
    Runtime Dynamic = 0.0455876 W

  Total L2s: 
  Device Type= ITRS high performance device type
    Area = 1.92007 mm^2
    Peak Dynamic = 0.348844 W
    Subthreshold Leakage = 0.0454424 W
    Gate Leakage = 0.000193912 W
    Runtime Dynamic = 0.000188777 W

  Total First Level Directory: 
  Device Type= ITRS low operating power device type
    Area = 0.0828977 mm^2
    Peak Dynamic = 0.0101285 W
    Subthreshold Leakage = 0.00304137 W
    Gate Leakage = 9.81906e-05 W
    Runtime Dynamic = 0.000488584 W

  Total Second Level Directory: 
  Device Type= ITRS low operating power device type
    Area = 2.21522 mm^2
    Peak Dynamic = 0.016565 W
    Subthreshold Leakage = 0.0580224 W
    Gate Leakage = 0.00143221 W
    Runtime Dynamic = 4.55831e-05 W

  Total NoCs (Network/Bus): 
  Device Type= ITRS low operating power device type
    Area = 0.00791132 mm^2
    Peak Dynamic = 0.015251 W
    Subthreshold Leakage = 0.000562897 W
    Gate Leakage = 1.45563e-05 W
    Runtime Dynamic = 4.58597e-05 W

*****************************************************************************************
Core:
      Area = 0.7714 mm^2
      Peak Dynamic = 0.40652 W
      Subthreshold Leakage = 0.0351069 W
      Gate Leakage = 0.00061054 W
      Runtime Dynamic = 0.0455876 W

      Instruction Fetch Unit:
        Area = 0.145679 mm^2
        Peak Dynamic = 0.162424 W
        Subthreshold Leakage = 0.0077559 W
        Gate Leakage = 9.25814e-05 W
        Runtime Dynamic = 0.0305549 W

          Instruction Cache:
            Area = 0.0741861 mm^2
            Peak Dynamic = 0.032698 W
            Subthreshold Leakage = 0.00499605 W
            Gate Leakage = 6.50117e-05 W
            Runtime Dynamic = 1.50413e-05 W

          Branch Target Buffer:
            Area = 0.0466984 mm^2
            Peak Dynamic = 0.00548634 W
            Subthreshold Leakage = 0.00150375 W
            Gate Leakage = 1.02698e-05 W
            Runtime Dynamic = 1.3198e-05 W

          Branch Predictor:
            Area = 0.0201384 mm^2
            Peak Dynamic = 0.00447367 W
            Subthreshold Leakage = 0.000947279 W
            Gate Leakage = 1.13124e-05 W
            Runtime Dynamic = 0.000377687 W

              Global Predictor:
                Area = 0.00972367 mm^2
                Peak Dynamic = 0.00199232 W
                Subthreshold Leakage = 0.000458971 W
                Gate Leakage = 5.37384e-06 W
                Runtime Dynamic = 0.000169618 W

              Local Predictor:
              L1_Local Predictor:
                Area = 0.000220504 mm^2
                Peak Dynamic = 0.000142911 W
                Subthreshold Leakage = 9.97567e-06 W
                Gate Leakage = 1.99122e-07 W
                Runtime Dynamic = 2.254e-05 W

              L2_Local Predictor:
                Area = 0.000210131 mm^2
                Peak Dynamic = 0.000113545 W
                Subthreshold Leakage = 9.47714e-06 W
                Gate Leakage = 1.79377e-07 W
                Runtime Dynamic = 1.59113e-05 W

              Chooser:
                Area = 0.00972367 mm^2
                Peak Dynamic = 0.00199232 W
                Subthreshold Leakage = 0.000458971 W
                Gate Leakage = 5.37384e-06 W
                Runtime Dynamic = 0.000169618 W

              RAS:
                Area = 0.000260413 mm^2
                Peak Dynamic = 0.000232563 W
                Subthreshold Leakage = 9.88538e-06 W
                Gate Leakage = 1.86244e-07 W
                Runtime Dynamic = 2.3102e-11 W

          Instruction Buffer:
            Area = 0.00278893 mm^2
            Peak Dynamic = 0.0983458 W
            Subthreshold Leakage = 0.000120371 W
            Gate Leakage = 1.6757e-06 W
            Runtime Dynamic = 0.0169036 W

          Instruction Decoder:
            Area = 0.00138193 mm^2
            Peak Dynamic = 0.0205188 W
            Subthreshold Leakage = 0.000152185 W
            Gate Leakage = 2.34514e-06 W
            Runtime Dynamic = 0.0123436 W

      Renaming Unit:
        Area = 0.00454051 mm^2
        Peak Dynamic = 0.0106179 W
        Subthreshold Leakage = 9.98341e-05 W
        Gate Leakage = 3.17658e-06 W
        Runtime Dynamic = 0.00101194 W

          Int Front End RAT with 1 internal checkpoints:
            Area = 0.00118972 mm^2
            Peak Dynamic = 0.00467611 W
            Subthreshold Leakage = 1.82639e-05 W
            Gate Leakage = 3.55209e-07 W
            Runtime Dynamic = 5.31528e-06 W

          FP Front End RAT with 1 internal checkpoints:
            Area = 0.000521559 mm^2
            Peak Dynamic = 0.00222633 W
            Subthreshold Leakage = 1.31821e-05 W
            Gate Leakage = 2.62974e-07 W
            Runtime Dynamic = 1.21842e-06 W

          Free List:
            Area = 0.00143426 mm^2
            Peak Dynamic = 0.00145589 W
            Subthreshold Leakage = 1.75722e-05 W
            Gate Leakage = 3.2166e-07 W
            Runtime Dynamic = 2.84319e-06 W

          FP Free List:
            Area = 0.000909818 mm^2
            Peak Dynamic = 0.00125763 W
            Subthreshold Leakage = 1.45529e-05 W
            Gate Leakage = 2.70145e-07 W
            Runtime Dynamic = 6.13297e-07 W

      Load Store Unit:
        Area = 0.0880662 mm^2
        Peak Dynamic = 0.0381512 W
        Subthreshold Leakage = 0.00541108 W
        Gate Leakage = 7.476e-05 W
        Runtime Dynamic = 0.0122462 W

          Data Cache:
            Area = 0.0766447 mm^2
            Peak Dynamic = 0.0320411 W
            Subthreshold Leakage = 0.00519626 W
            Gate Leakage = 6.91663e-05 W
            Runtime Dynamic = 6.23582e-05 W

          StoreQ:
            Area = 0.00297449 mm^2
            Peak Dynamic = 0.00539872 W
            Subthreshold Leakage = 0.000178552 W
            Gate Leakage = 3.62709e-06 W
            Runtime Dynamic = 0.0114724 W

      Memory Management Unit:
        Area = 0.0072435 mm^2
        Peak Dynamic = 0.00593675 W
        Subthreshold Leakage = 0.000395894 W
        Runtime Dynamic = 0.000868054 W

          Itlb:
            Area = 0.00337918 mm^2
            Peak Dynamic = 0.0028398 W
            Subthreshold Leakage = 0.000179815 W
            Gate Leakage = 3.42161e-06 W
            Runtime Dynamic = 3.79528e-06 W

          Dtlb:
            Area = 0.00337918 mm^2
            Peak Dynamic = 0.00224029 W
            Subthreshold Leakage = 0.000179815 W
            Gate Leakage = 3.42161e-06 W
            Runtime Dynamic = 7.59052e-06 W

      Execution Unit:
        Area = 0.492709 mm^2
        Peak Dynamic = 0.18939 W
        Subthreshold Leakage = 0.0198864 W
        Runtime Dynamic = 0.000906475 W

          Register Files:
            Area = 0.0605724 mm^2
            Peak Dynamic = 0.0792643 W
            Subthreshold Leakage = 0.000529283 W
            Gate Leakage = 9.09204e-06 W
            Runtime Dynamic = 2.17729e-05 W

              Integer RF:
                Area = 0.0453161 mm^2
                Peak Dynamic = 0.0778149 W
                Subthreshold Leakage = 0.000379646 W
                Gate Leakage = 6.68852e-06 W
                Runtime Dynamic = 2.02163e-05 W

              Floating Point RF:
                Area = 0.0152562 mm^2
                Peak Dynamic = 0.00144939 W
                Subthreshold Leakage = 0.000149638 W
                Gate Leakage = 2.40352e-06 W
                Runtime Dynamic = 1.55666e-06 W

          Instruction Scheduler:
            Area = 0.0209173 mm^2
            Peak Dynamic = 0.0381771 W
            Subthreshold Leakage = 0.000726221 W
            Gate Leakage = 1.53594e-05 W
            Runtime Dynamic = 3.47248e-05 W

              Instruction Window:
                Area = 0.0192395 mm^2
                Peak Dynamic = 0.0318769 W
                Subthreshold Leakage = 0.000619575 W
                Gate Leakage = 1.28675e-05 W
                Runtime Dynamic = 2.52964e-05 W

              FP Instruction Window:
                Area = 0.00167787 mm^2
                Peak Dynamic = 0.00630022 W
                Subthreshold Leakage = 0.000106646 W
                Gate Leakage = 2.4919e-06 W
                Runtime Dynamic = 9.42839e-06 W

          Integer ALUs (Count: 3 ):
            Area = 0.0576816 mm^2
            Peak Dynamic = 0.0154224 W
            Subthreshold Leakage = 0.0054195 W
            Gate Leakage = 0.000108859 W
            Runtime Dynamic = 1.2204e-05 W

          Floating Point Units (FPUs) (Count: 1 ):
            Area = 0.293806 mm^2
            Peak Dynamic = 0 W
            Subthreshold Leakage = 0.00690117 W
            Gate Leakage = 0.000138621 W
            Runtime Dynamic = 1.2204e-05 W

          Complex ALUs (Mul/Div) (Count: 1 ):
            Area = 0.0576816 mm^2
            Peak Dynamic = 0.0110933 W
            Subthreshold Leakage = 0.0054195 W
            Gate Leakage = 0.000108859 W
            Runtime Dynamic = 1.62721e-05 W

          Results Broadcast Bus:
            Area Overhead = 0.00156514 mm^2
            Peak Dynamic = 0.0446712 W
            Subthreshold Leakage = 0.000854434 W
            Gate Leakage = 1.71627e-05 W
            Runtime Dynamic = 4.78143e-05 W

*****************************************************************************************
L2
      Area = 1.92007 mm^2
      Peak Dynamic = 0.348844 W
      Subthreshold Leakage = 0.0454424 W
      Gate Leakage = 0.000193912 W
      Runtime Dynamic = 0.000188777 W

*****************************************************************************************
First Level Directory
      Area = 0.0828977 mm^2
      Peak Dynamic = 0.0101285 W
      Subthreshold Leakage = 0.00304137 W
      Gate Leakage = 9.81906e-05 W
      Runtime Dynamic = 0.000488584 W

*****************************************************************************************
Second Level Directory
      Area = 2.21522 mm^2
      Peak Dynamic = 0.016565 W
      Subthreshold Leakage = 0.0580224 W
      Gate Leakage = 0.00143221 W
      Runtime Dynamic = 4.55831e-05 W

*****************************************************************************************
BUSES
      Area = 0.00791132 mm^2
      Peak Dynamic = 0.015251 W
      Subthreshold Leakage = 0.000562897 W
      Gate Leakage = 1.45563e-05 W
      Runtime Dynamic = 4.58597e-05 W

      Bus: 
        Area = 0.00791132 mm^2
        Peak Dynamic = 0.015251 W
        Subthreshold Leakage = 0.000562897 W
        Gate Leakage = 1.45563e-05 W
        Runtime Dynamic = 4.58597e-05 W

*****************************************************************************************
