McPAT (version 1.3 of Feb, 2015) is computing the target processor...
 

McPAT (version 1.3 of Feb, 2015) results  (current print level is 5)
*****************************************************************************************
  Technology 22 nm
  Using Long Channel Devices When Appropriate
  Interconnect metal projection= conservative interconnect technology projection
  Core clock Rate(MHz) 2000

*****************************************************************************************
Processor: 
  Area = 0.857571 mm^2
  Peak Power = 0.391562 W
  Total Leakage = 0.039096 W
  Peak Dynamic = 0.352466 W
  Subthreshold Leakage = 0.0383812 W
  Gate Leakage = 0.000714754 W
  Runtime Dynamic = 0.00400856 W

  Total Cores: 1 cores 
  Device Type= ITRS low operating power device type
    Area = 0.7714 mm^2
    Peak Dynamic = 0.338767 W
    Subthreshold Leakage = 0.0351069 W
    Gate Leakage = 0.00061054 W
    Runtime Dynamic = 0.00369459 W

  Total First Level Directory: 
  Device Type= ITRS low operating power device type
    Area = 0.0828977 mm^2
    Peak Dynamic = 0.00844044 W
    Subthreshold Leakage = 0.00304137 W
    Gate Leakage = 9.81906e-05 W
    Runtime Dynamic = 0.000302232 W

  Total NoCs (Network/Bus): 
  Device Type= ITRS low operating power device type
    Area = 0.00327357 mm^2
    Peak Dynamic = 0.00525882 W
    Subthreshold Leakage = 0.000232917 W
    Gate Leakage = 6.02314e-06 W
    Runtime Dynamic = 1.17383e-05 W

*****************************************************************************************
Core:
      Area = 0.7714 mm^2
      Peak Dynamic = 0.338767 W
      Subthreshold Leakage = 0.0351069 W
      Gate Leakage = 0.00061054 W
      Runtime Dynamic = 0.00369459 W

      Instruction Fetch Unit:
        Area = 0.145679 mm^2
        Peak Dynamic = 0.135354 W
        Subthreshold Leakage = 0.0077559 W
        Gate Leakage = 9.25814e-05 W
        Runtime Dynamic = 0.000798084 W

          Instruction Cache:
            Area = 0.0741861 mm^2
            Peak Dynamic = 0.0272484 W
            Subthreshold Leakage = 0.00499605 W
            Gate Leakage = 6.50117e-05 W
            Runtime Dynamic = 7.75363e-06 W

          Branch Target Buffer:
            Area = 0.0466984 mm^2
            Peak Dynamic = 0.00457195 W
            Subthreshold Leakage = 0.00150375 W
            Gate Leakage = 1.02698e-05 W
            Runtime Dynamic = 6.80341e-06 W

          Branch Predictor:
            Area = 0.0201384 mm^2
            Peak Dynamic = 0.00372806 W
            Subthreshold Leakage = 0.000947279 W
            Gate Leakage = 1.13124e-05 W
            Runtime Dynamic = 1.91903e-06 W

              Global Predictor:
                Area = 0.00972367 mm^2
                Peak Dynamic = 0.00166027 W
                Subthreshold Leakage = 0.000458971 W
                Gate Leakage = 5.37384e-06 W
                Runtime Dynamic = 8.97603e-07 W

              Local Predictor:
              L1_Local Predictor:
                Area = 0.000220504 mm^2
                Peak Dynamic = 0.000119093 W
                Subthreshold Leakage = 9.97567e-06 W
                Gate Leakage = 1.99122e-07 W
                Runtime Dynamic = 6.9548e-08 W

              L2_Local Predictor:
                Area = 0.000210131 mm^2
                Peak Dynamic = 9.46209e-05 W
                Subthreshold Leakage = 9.47714e-06 W
                Gate Leakage = 1.79377e-07 W
                Runtime Dynamic = 5.42631e-08 W

              Chooser:
                Area = 0.00972367 mm^2
                Peak Dynamic = 0.00166027 W
                Subthreshold Leakage = 0.000458971 W
                Gate Leakage = 5.37384e-06 W
                Runtime Dynamic = 8.97603e-07 W

              RAS:
                Area = 0.000260413 mm^2
                Peak Dynamic = 0.000193802 W
                Subthreshold Leakage = 9.88538e-06 W
                Gate Leakage = 1.86244e-07 W
                Runtime Dynamic = 1.19088e-11 W

          Instruction Buffer:
            Area = 0.00278893 mm^2
            Peak Dynamic = 0.0819549 W
            Subthreshold Leakage = 0.000120371 W
            Gate Leakage = 1.6757e-06 W
            Runtime Dynamic = 1.74222e-05 W

          Instruction Decoder:
            Area = 0.00138193 mm^2
            Peak Dynamic = 0.017099 W
            Subthreshold Leakage = 0.000152185 W
            Gate Leakage = 2.34514e-06 W
            Runtime Dynamic = 1.27223e-05 W

      Renaming Unit:
        Area = 0.00454051 mm^2
        Peak Dynamic = 0.00884825 W
        Subthreshold Leakage = 9.98341e-05 W
        Gate Leakage = 3.17658e-06 W
        Runtime Dynamic = 0.000840109 W

          Int Front End RAT with 1 internal checkpoints:
            Area = 0.00118972 mm^2
            Peak Dynamic = 0.00389676 W
            Subthreshold Leakage = 1.82639e-05 W
            Gate Leakage = 3.55209e-07 W
            Runtime Dynamic = 2.73997e-06 W

          FP Front End RAT with 1 internal checkpoints:
            Area = 0.000521559 mm^2
            Peak Dynamic = 0.00185527 W
            Subthreshold Leakage = 1.31821e-05 W
            Gate Leakage = 2.62974e-07 W
            Runtime Dynamic = 6.28082e-07 W

          Free List:
            Area = 0.00143426 mm^2
            Peak Dynamic = 0.00121324 W
            Subthreshold Leakage = 1.75722e-05 W
            Gate Leakage = 3.2166e-07 W
            Runtime Dynamic = 1.46563e-06 W

          FP Free List:
            Area = 0.000909818 mm^2
            Peak Dynamic = 0.00104802 W
            Subthreshold Leakage = 1.45529e-05 W
            Gate Leakage = 2.70145e-07 W
            Runtime Dynamic = 3.16148e-07 W

      Load Store Unit:
        Area = 0.0880662 mm^2
        Peak Dynamic = 0.0317926 W
        Subthreshold Leakage = 0.00541108 W
        Gate Leakage = 7.476e-05 W
        Runtime Dynamic = 0.000627323 W

          Data Cache:
            Area = 0.0766447 mm^2
            Peak Dynamic = 0.0267009 W
            Subthreshold Leakage = 0.00519626 W
            Gate Leakage = 6.91663e-05 W
            Runtime Dynamic = 3.2145e-05 W

          StoreQ:
            Area = 0.00297449 mm^2
            Peak Dynamic = 0.00449893 W
            Subthreshold Leakage = 0.000178552 W
            Gate Leakage = 3.62709e-06 W
            Runtime Dynamic = 2.35731e-06 W

      Memory Management Unit:
        Area = 0.0072435 mm^2
        Peak Dynamic = 0.00494729 W
        Subthreshold Leakage = 0.000395894 W
        Runtime Dynamic = 0.000719759 W

          Itlb:
            Area = 0.00337918 mm^2
            Peak Dynamic = 0.0023665 W
            Subthreshold Leakage = 0.000179815 W
            Gate Leakage = 3.42161e-06 W
            Runtime Dynamic = 1.95643e-06 W

          Dtlb:
            Area = 0.00337918 mm^2
            Peak Dynamic = 0.0018669 W
            Subthreshold Leakage = 0.000179815 W
            Gate Leakage = 3.42161e-06 W
            Runtime Dynamic = 3.91283e-06 W

      Execution Unit:
        Area = 0.492709 mm^2
        Peak Dynamic = 0.157825 W
        Subthreshold Leakage = 0.0198864 W
        Runtime Dynamic = 0.000709311 W

          Register Files:
            Area = 0.0605724 mm^2
            Peak Dynamic = 0.0660536 W
            Subthreshold Leakage = 0.000529283 W
            Gate Leakage = 9.09204e-06 W
            Runtime Dynamic = 1.12237e-05 W

              Integer RF:
                Area = 0.0453161 mm^2
                Peak Dynamic = 0.0648458 W
                Subthreshold Leakage = 0.000379646 W
                Gate Leakage = 6.68852e-06 W
                Runtime Dynamic = 1.04213e-05 W

              Floating Point RF:
                Area = 0.0152562 mm^2
                Peak Dynamic = 0.00120782 W
                Subthreshold Leakage = 0.000149638 W
                Gate Leakage = 2.40352e-06 W
                Runtime Dynamic = 8.02444e-07 W

          Instruction Scheduler:
            Area = 0.0209173 mm^2
            Peak Dynamic = 0.0318143 W
            Subthreshold Leakage = 0.000726221 W
            Gate Leakage = 1.53594e-05 W
            Runtime Dynamic = 1.79003e-05 W

              Instruction Window:
                Area = 0.0192395 mm^2
                Peak Dynamic = 0.0265641 W
                Subthreshold Leakage = 0.000619575 W
                Gate Leakage = 1.28675e-05 W
                Runtime Dynamic = 1.304e-05 W

              FP Instruction Window:
                Area = 0.00167787 mm^2
                Peak Dynamic = 0.00525018 W
                Subthreshold Leakage = 0.000106646 W
                Gate Leakage = 2.4919e-06 W
                Runtime Dynamic = 4.86024e-06 W

          Integer ALUs (Count: 3 ):
            Area = 0.0576816 mm^2
            Peak Dynamic = 0.012852 W
            Subthreshold Leakage = 0.0054195 W
            Gate Leakage = 0.000108859 W
            Runtime Dynamic = 6.29106e-06 W

          Floating Point Units (FPUs) (Count: 1 ):
            Area = 0.293806 mm^2
            Peak Dynamic = 0 W
            Subthreshold Leakage = 0.00690117 W
            Gate Leakage = 0.000138621 W
            Runtime Dynamic = 6.29106e-06 W

          Complex ALUs (Mul/Div) (Count: 1 ):
            Area = 0.0576816 mm^2
            Peak Dynamic = 0.00924445 W
            Subthreshold Leakage = 0.0054195 W
            Gate Leakage = 0.000108859 W
            Runtime Dynamic = 8.38808e-06 W

          Results Broadcast Bus:
            Area Overhead = 0.00156514 mm^2
            Peak Dynamic = 0.037226 W
            Subthreshold Leakage = 0.000854434 W
            Gate Leakage = 1.71627e-05 W
            Runtime Dynamic = 2.46478e-05 W

*****************************************************************************************
First Level Directory
      Area = 0.0828977 mm^2
      Peak Dynamic = 0.00844044 W
      Subthreshold Leakage = 0.00304137 W
      Gate Leakage = 9.81906e-05 W
      Runtime Dynamic = 0.000302232 W

*****************************************************************************************
BUSES
      Area = 0.00327357 mm^2
      Peak Dynamic = 0.00525882 W
      Subthreshold Leakage = 0.000232917 W
      Gate Leakage = 6.02314e-06 W
      Runtime Dynamic = 1.17383e-05 W

      Bus: 
        Area = 0.00327357 mm^2
        Peak Dynamic = 0.00525882 W
        Subthreshold Leakage = 0.000232917 W
        Gate Leakage = 6.02314e-06 W
        Runtime Dynamic = 1.17383e-05 W

*****************************************************************************************
